# Example simulation for integrating veins (http://veins.car2x.org/) with Simu5G
#
# Requirements:
#       You need to enable the feature "Simu5G Cars" for this simulation
#       (Project->Properties->OMNeT++->Project Features)
#
#       You need to import the "veins" project and its subproject
#       "veins_inet" in your workspace.
[General]
cmdenv-autoflush = true
network = Highway

##########################################################
#            Simulation parameters                       #
##########################################################
debug-on-errors = false
print-undisposed = false

sim-time-limit = 1000s

**.sctp.**.scalar-recording = false
**.sctp.**.vector-recording = false
**.routingRecorder.enabled = false

*.playgroundSizeX = 20000m
*.playgroundSizeY = 20000m
*.playgroundSizeZ = 50m

##########################################################
#            VeinsManager parameters                     #
##########################################################
*.veinsManager.host = "localhost"       # if traci-launchd runs on localhost
#*.veinsManager.host = "sumo"       # traci-launchd on different host/container
*.veinsManager.moduleType = "moqveinssim.nodes.QuicNrCar"
*.veinsManager.moduleName = "car"
*.veinsManager.launchConfig = xmldoc("heterogeneous.launchd.xml")
*.veinsManager.updateInterval = 0.1s

##########################################################
#                      Mobility                          #
##########################################################
*.car[*].mobility.typename = "VeinsInetMobility"


##########################################################
#          Mobile network specific parameters            #
##########################################################

# Number of Resource Blocks
**.numBands = 25

# Transmission Power
**.ueTxPower = 26dBm
**.eNodeBTxPower = 46dBm

# Enable dynamic association of UEs (based on best SINR)
*.car[*].cellularNic.nrPhy.dynamicCellAssociation = true
*.car[*].servingNodeId = 0     # ignored if dynamic association is enabled
*.car[*].nrServingNodeId = 1     # ignored if dynamic association is enabled

# eNodeB configuration
**.gNodeB1.macCellId = 1
**.gNodeB1.macNodeId = 1
**.gNodeB2.macCellId = 2
**.gNodeB2.macNodeId = 2


# Enable handover
*.car[*].cellularNic.nrPhy.enableHandover = true
*.gNodeB*.cellularNic.phy.enableHandover = true
*.gNodeB*.cellularNic.phy.handoverLatency = 50ms
*.gNodeB*.cellInfo.broadcastMessageInterval = 1s # eNB will sends broadcast triggers every second

# X2 and SCTP configuration
*.gNodeB*.numX2Apps = 1    # one x2App per peering eNodeB
*.gNodeB*.x2App[*].server.localPort = 5000 + ancestorIndex(1) # Server ports (x2App[0]=5000, x2App[1]=5001, ...)
*.gNodeB1.x2App[0].client.connectAddress = "gNodeB2%x2ppp0"
*.gNodeB2.x2App[0].client.connectAddress = "gNodeB1%x2ppp0"
**.sctp.nagleEnabled = false         # if true, transmission of small packets will be delayed on the X2
**.sctp.enableHeartbeats = false

##########################################################
#                    QUIC Layer                           #
##########################################################
**.quic.initialMaxData = 4294967295B
**.quic.initialMaxStreamData = 4294967295B
**.quic.bundleAckForNonAckElicitingPackets = true
*.car[*].quic.accurateIncreaseInNewRenoCongestionAvoidance = true
*.car[*].quic.sendQueueLimit = 100000B
*.car[*].quic.sendQueueLowWaterRatio = 0.8
*.server.quic.numReceivedAckElicitingsBeforeAck = 2

# ----------------------------------------------------------------------------- #
# Config "VoIP-Uplink"
#
[Config MOQ]

##########################################################
#                    App Layer                           #
# Server as relay, car as both pub and sub               #
# First car as pub, other cars as sub                    #
##########################################################
*.server.hasUdp = true
*.server.hasQuic = true
*.server.quic.typename = "Quic"
*.server.numApps = 1
*.server.app[0].typename = "moqveinssim.applications.moq.MoqRelayApp"
*.server.app[0].localAddress = ""
*.server.app[0].localPort = 9000
*.car[*].hasQuic = true
*.car[*].quic.typename = "Quic"
*.car[*].hasUdp = true
*.car[*].numApps = 1
*.car[0].app[0].typename = "moqveinssim.applications.moq.MoqPublisherApp"
*.car[0].app[0].localAddress = ""
*.car[0].app[0].localPort = 9001
*.car[0].app[0].connectAddress = "server"
*.car[0].app[0].connectPort = 9000
*.car[0].app[0].tracks = [{trackName: "BBox",packetSize: 50B, sendInterval: 0.1s, priority: 0},{trackName: "PCloud",packetSize: 300000B,sendInterval: 0.2s,priority: 0}]
*.car[1..].app[0].typename = "moqveinssim.applications.moq.MoqSubscriberApp"
*.car[1..].app[0].localAddress = ""
*.car[1..].app[0].localPort = 9002
*.car[1..].app[0].connectAddress = "server"
*.car[1..].app[0].connectPort = 9000
*.car[1..].app[0].tracks = [{trackName: "BBox", trackNamespace: "car[0]", startObjectId: 0, subscriberPriority: 0 },{trackName: "PCloud", trackNamespace: "car[0]", startObjectId: 0, subscriberPriority: 0 }]

