# Example simulation for integrating veins (http://veins.car2x.org/) with Simu5G
#
# Requirements:
#       You need to enable the feature "Simu5G Cars" for this simulation
#       (Project->Properties->OMNeT++->Project Features)
#
#       You need to import the "veins" project and its subproject
#       "veins_inet" in your workspace.
[General]
cmdenv-autoflush = true
network = Highway

##########################################################
#            Simulation parameters                       #
##########################################################
debug-on-errors = false
print-undisposed = false

sim-time-limit = 100s

**.sctp.**.scalar-recording = false
**.sctp.**.vector-recording = false
**.routingRecorder.enabled = false

*.playgroundSizeX = 20000m
*.playgroundSizeY = 20000m
*.playgroundSizeZ = 50m

##########################################################
#            VeinsManager parameters                     #
##########################################################
*.veinsManager.host = "localhost"       # if traci-launchd runs on localhost
#*.veinsManager.host = "sumo"       # traci-launchd on different host/container
*.veinsManager.moduleType = "simu5g.nodes.NrCar"
*.veinsManager.moduleName = "car"
*.veinsManager.launchConfig = xmldoc("heterogeneous.launchd.xml")
*.veinsManager.updateInterval = 0.1s

##########################################################
#                      Mobility                          #
##########################################################
*.car[*].mobility.typename = "VeinsInetMobility"


##########################################################
#          Mobile network specific parameters            #
##########################################################

# Number of Resource Blocks
**.numBands = 25

# Transmission Power
**.ueTxPower = 26dBm
**.eNodeBTxPower = 46dBm

# Enable dynamic association of UEs (based on best SINR)
*.car[*].cellularNic.nrPhy.dynamicCellAssociation = true
*.car[*].servingNodeId = 0     # ignored if dynamic association is enabled
*.car[*].nrServingNodeId = 1     # ignored if dynamic association is enabled

# eNodeB configuration
**.gNodeB1.macCellId = 1
**.gNodeB1.macNodeId = 1
**.gNodeB2.macCellId = 2
**.gNodeB2.macNodeId = 2


# Enable handover
*.car[*].cellularNic.nrPhy.enableHandover = true
*.gNodeB*.cellularNic.phy.enableHandover = true
*.gNodeB*.cellularNic.phy.handoverLatency = 50ms
*.gNodeB*.cellInfo.broadcastMessageInterval = 1s # eNB will sends broadcast triggers every second

# X2 and SCTP configuration
*.gNodeB*.numX2Apps = 1    # one x2App per peering eNodeB
*.gNodeB*.x2App[*].server.localPort = 5000 + ancestorIndex(1) # Server ports (x2App[0]=5000, x2App[1]=5001, ...)
*.gNodeB1.x2App[0].client.connectAddress = "gNodeB2%x2ppp0"
*.gNodeB2.x2App[0].client.connectAddress = "gNodeB1%x2ppp0"
**.sctp.nagleEnabled = false         # if true, transmission of small packets will be delayed on the X2
**.sctp.enableHeartbeats = false



# ----------------------------------------------------------------------------- #
# Config "VoIP-Uplink"
#
[Config VoIP-UL]

##########################################################
#                    App Layer                           #
##########################################################
*.server.numApps = 10
*.server.app[*].typename = "UdpSink"
*.server.app[*].localPort = 5000 + ancestorIndex(0)

*.car[*].numApps = 1
*.car[*].app[0].typename = "UdpBasicApp"
*.car[*].app[0].destAddress = "server"
*.car[*].app[0].destPort = 5000 + ancestorIndex(1)
*.car[*].app[0].messageLength = 200B
*.car[*].app[0].sendInterval = 100ms
*.car[*].app[0].startTime = uniform(0s,1s)
