
[General]
network = TestMoqFullFlow
sim-time-limit = 5s
cmdenv-express-mode = false
cmdenv-event-banners = false
**.cmdenv-log-level = INFO
cmdenv-log-prefix = "%N: "

**.arp.retryCount = 0
**.arp.retryTimeout = 100ms

**.quic.initialMaxData = 1GB
**.quic.initialMaxStreamData = 1GB
**.quic.bundleAckForNonAckElicitingPackets = true

# --- Relay ---
*.relay.hasQuic = true
*.relay.quic.typename = "Quic"
*.relay.numApps = 1
*.relay.app[0].typename = "moqveinssim.applications.moq.MoqRelayApp"
*.relay.app[0].localAddress = ""
*.relay.app[0].localPort = 9001

# --- Publisher: two tracks ---
*.publisher.hasQuic = true
*.publisher.quic.typename = "Quic"
*.publisher.numApps = 1
*.publisher.app[0].typename = "moqveinssim.applications.moq.MoqPublisherApp"
*.publisher.app[0].localAddress = ""
*.publisher.app[0].localPort = 9000
*.publisher.app[0].connectAddress = "relay"
*.publisher.app[0].connectPort = 9001
*.publisher.app[0].connectTime = 0.2s
*.publisher.app[0].tracks = [{trackName: "BBox", packetSize: 50B, sendInterval: 1s, priority: 0}, {trackName: "PCloud", packetSize: 300000B, sendInterval: 2s, priority: 1}]

# --- Subscriber: subscribe to both tracks ---
*.subscriber.hasQuic = true
*.subscriber.quic.typename = "Quic"
*.subscriber.numApps = 1
*.subscriber.app[0].typename = "moqveinssim.applications.moq.MoqSubscriberApp"
*.subscriber.app[0].localAddress = ""
*.subscriber.app[0].localPort = 9002
*.subscriber.app[0].connectAddress = "relay"
*.subscriber.app[0].connectPort = 9001
*.subscriber.app[0].connectTime = 0.8s
*.subscriber.app[0].tracks = [{trackNamespace: "publisher", trackName: "BBox", startObjectId: 0, subscriberPriority: 0}, {trackNamespace: "publisher", trackName: "PCloud", startObjectId: 0, subscriberPriority: 1}]

