
[General]
network = TestMoqFullFlow
sim-time-limit = 3s
cmdenv-express-mode = false
cmdenv-event-banners = false
**.cmdenv-log-level = INFO
cmdenv-log-prefix = "%N: "

**.arp.retryCount = 0
**.arp.retryTimeout = 100ms

**.fcsMode = "declared"
**.crcMode = "declared"

**.quic.initialMaxData = 1GB
**.quic.initialMaxStreamData = 1GB
**.quic.bundleAckForNonAckElicitingPackets = true

# --- Relay ---
*.relay.hasQuic = true
*.relay.quic.typename = "Quic"
*.relay.numApps = 1
*.relay.app[0].typename = "moqveinssim.applications.moq.MoqRelayApp"
*.relay.app[0].localAddress = ""
*.relay.app[0].localPort = 9001

# --- Publisher: two tracks respectively ---
*.publisher1.hasQuic = true
*.publisher1.quic.typename = "Quic"
*.publisher1.numApps = 1
*.publisher1.app[0].typename = "moqveinssim.applications.moq.MoqPublisherApp"
*.publisher1.app[0].localAddress = ""
*.publisher1.app[0].localPort = 9000
*.publisher1.app[0].connectAddress = "relay"
*.publisher1.app[0].connectPort = 9001
*.publisher1.app[0].connectTime = 0.2s
*.publisher1.app[0].tracks = [{trackName: "BBox", packetSize: 50B, sendInterval: 1s, priority: 0}]
*.publisher2.hasQuic = true
*.publisher2.quic.typename = "Quic"
*.publisher2.numApps = 1
*.publisher2.app[0].typename = "moqveinssim.applications.moq.MoqPublisherApp"
*.publisher2.app[0].localAddress = ""
*.publisher2.app[0].localPort = 9000
*.publisher2.app[0].connectAddress = "relay"
*.publisher2.app[0].connectPort = 9001
*.publisher2.app[0].connectTime = 0.2s
*.publisher2.app[0].tracks = [{trackName: "PCloud", packetSize: 300000B, sendInterval: 2s, priority: 1}]

# --- Subscriber: subscribe to both tracks ---
*.subscriber1.hasQuic = true
*.subscriber1.quic.typename = "Quic"
*.subscriber1.numApps = 1
*.subscriber1.app[0].typename = "moqveinssim.applications.moq.MoqSubscriberApp"
*.subscriber1.app[0].localAddress = ""
*.subscriber1.app[0].localPort = 9002
*.subscriber1.app[0].connectAddress = "relay"
*.subscriber1.app[0].connectPort = 9001
*.subscriber1.app[0].connectTime = 0.8s
*.subscriber1.app[0].tracks = [{trackNamespace: "publisher1", trackName: "BBox", startObjectId: 0, subscriberPriority: 0}]

*.subscriber2.hasQuic = true
*.subscriber2.quic.typename = "Quic"
*.subscriber2.numApps = 1
*.subscriber2.app[0].typename = "moqveinssim.applications.moq.MoqSubscriberApp"
*.subscriber2.app[0].localAddress = ""
*.subscriber2.app[0].localPort = 9002
*.subscriber2.app[0].connectAddress = "relay"
*.subscriber2.app[0].connectPort = 9001
*.subscriber2.app[0].connectTime = 0.8s
*.subscriber2.app[0].tracks = [{trackNamespace: "publisher2", trackName: "PCloud", startObjectId: 0, subscriberPriority: 0}]

